test/data/ieee8500/Master-no-secondaries.dss
Clear

New Circuit.IEEE8500  
! Make the source stiff with small impedance
~ pu=1.05  r1=0  x1=0.001  r0=0  x0=0.001  

Redirect  LineCodes2.dss

Redirect  Lines.dss
Redirect  moved_loads.dss
Redirect  Capacitors.dss
Redirect  CapControls.dss
Redirect  Regulators.dss

! Let DSS estimate the voltage bases
Set voltagebases=[115, 12.47,  0.48, 0.208]
Calcvoltagebases     ! This also establishes the bus list
Buscoords  Buscoords.dss

Set Maxiterations=20     ! Sometimes the solution takes more than the default 15 iterations